version 2
run General-0-20190731-12:48:35-10040
attr configname General
attr datetime 20190731-12:48:35
attr experiment General
attr inifile omnetpp.ini
attr iterationvars ""
attr iterationvarsf ""
attr measurement ""
attr network Scene
attr processid 10040
attr repetition 0
attr replication #0
attr resultdir results
attr runnumber 0
attr seedset 0
param **.debug false
param **.coreDebug false
param *.playgroundSizeX 2500m
param *.playgroundSizeY 2500m
param *.playgroundSizeZ 50m
param *.annotations.draw true
param *.obstacles.debug false
param *.obstacles.obstacles "xmldoc(\"config.xml\", \"//AnalogueModel[@type='SimpleObstacleShadowing']/obstacles\")"
param *.manager.updateInterval 1s
param *.manager.host "\"localhost\""
param *.manager.port 9999
param *.manager.autoShutdown true
param *.manager.launchConfig "xmldoc(\"route.launchd.xml\")"
param *.rsu[0].mobility.x 2000
param *.rsu[0].mobility.y 2000
param *.rsu[0].mobility.z 3
param *.rsu[*].applType "\"App1RSU\""
param *.rsu[*].appl.headerLength "80 bit"
param *.rsu[*].appl.sendBeacons false
param *.rsu[*].appl.dataOnSch false
param *.rsu[*].appl.beaconInterval 1s
param *.rsu[*].appl.beaconUserPriority 7
param *.rsu[*].appl.dataUserPriority 5
param *.connectionManager.sendDirect true
param *.connectionManager.maxInterfDist 2600m
param *.connectionManager.drawMaxIntfDist false
param *.**.nic.mac1609_4.useServiceChannel false
param *.**.nic.mac1609_4.txPower 20mW
param *.**.nic.mac1609_4.bitrate 6Mbps
param *.**.nic.phy80211p.sensitivity -89dBm
param *.**.nic.phy80211p.useThermalNoise true
param *.**.nic.phy80211p.thermalNoise -110dBm
param *.**.nic.phy80211p.decider "xmldoc(\"config.xml\")"
param *.**.nic.phy80211p.analogueModels "xmldoc(\"config.xml\")"
param *.**.nic.phy80211p.usePropagationDelay true
param *.**.nic.phy80211p.antenna "xmldoc(\"antenna.xml\", \"/root/Antenna[@id='monopole']\")"
param *.node[*].applType "\"App1\""
param *.node[*].appl.headerLength "80 bit"
param *.node[*].appl.sendBeacons false
param *.node[*].appl.dataOnSch false
param *.node[*].appl.beaconInterval 1s
param *.node[*].veinsmobilityType.debug true
param *.node[*].veinsmobility.x 0
param *.node[*].veinsmobility.y 0
param *.node[*].veinsmobility.z 1.895

vector 0 Scene.node[0].veinsmobility posx ETV
vector 1 Scene.node[0].veinsmobility posy ETV
vector 2 Scene.node[0].veinsmobility speed ETV
vector 3 Scene.node[0].veinsmobility acceleration ETV
vector 4 Scene.node[0].veinsmobility co2emission ETV
vector 5 Scene.node[1].veinsmobility posx ETV
vector 6 Scene.node[1].veinsmobility posy ETV
vector 7 Scene.node[1].veinsmobility speed ETV
vector 8 Scene.node[1].veinsmobility acceleration ETV
vector 9 Scene.node[1].veinsmobility co2emission ETV
0	12	11	31.116388994753
0	13	12	31.116388994753
0	14	13	34.169851130568
0	15	14	39.104161597845
0	16	15	46.008394236338
0	17	16	54.635775730742
0	18	17	65.121322531459
0	19	18	77.610731100116
0	20	19	91.383061136624
0	21	20	105.17112390701
0	22	21	118.9724897784
0	23	22	132.77466803254
0	24	23	146.5838171995
0	25	24	160.38037690584
0	26	25	174.18948600433
0	27	26	187.98512303883
0	28	27	201.77828791112
0	29	28	215.54635343844
0	30	29	229.33085302559
0	31	30	243.1246806256
0	32	31	256.89962284245
0	33	32	270.68386914188
0	34	33	284.46562967633
0	35	34	298.27048160639
0	36	35	312.06137974581
0	37	36	325.86805512481
0	38	37	339.67549403549
0	39	38	353.46556014976
0	40	39	367.2388720408
0	41	40	381.04983843221
1	12	11	26.65
1	13	12	26.65
1	14	13	26.65
1	15	14	26.65
1	16	15	26.65
1	17	16	26.65
1	18	17	26.65
1	19	18	26.65
1	20	19	26.65
1	21	20	26.65
1	22	21	26.65
1	23	22	26.65
1	24	23	26.65
1	25	24	26.65
1	26	25	26.65
1	27	26	26.65
1	28	27	26.65
1	29	28	26.65
1	30	29	26.65
1	31	30	26.65
1	32	31	26.65
1	33	32	26.65
1	34	33	26.65
1	35	34	26.65
1	36	35	26.65
1	37	36	26.65
1	38	37	26.65
1	39	38	26.65
1	40	39	26.65
1	41	40	26.65
2	13	12	3.9572089270348
2	14	13	5.7922925953529
2	15	14	7.7371638420652
2	16	15	9.4945008615972
2	17	16	11.396530551115
2	18	17	13.498528779914
2	19	18	13.80136336128
2	20	19	13.803320327534
2	21	20	13.842717599457
2	22	21	13.829379599534
2	23	22	13.781067162133
2	24	23	13.851501774092
2	25	24	13.815126955628
2	26	25	13.782237796318
2	27	26	13.860999388015
2	28	27	13.775374403258
2	29	28	13.804177440011
2	30	29	13.805226574333
2	31	30	13.79714863121
2	32	31	13.837066171302
2	33	32	13.795101226976
2	34	33	13.798426128086
2	35	34	13.795084136582
2	36	35	13.88245620888
2	37	36	13.820244702871
2	38	37	13.813518774735
2	39	38	13.766841822702
2	40	39	13.853908267908
2	41	40	13.87116979087
3	14	13	1.8350836683181
3	15	14	1.9448712467123
3	16	15	1.757337019532
3	17	16	1.9020296895178
3	18	17	2.1019982287986
3	19	18	0.30283458136635
3	20	19	0.0019569662539283
3	21	20	0.039397271922789
3	22	21	-0.013337999922223
3	23	22	-0.048312437401618
3	24	23	0.070434611958916
3	25	24	-0.036374818463809
3	26	25	-0.032889159310143
3	27	26	0.078761591697111
3	28	27	-0.085624984756578
3	29	28	0.028803036753088
3	30	29	0.0010491343215122
3	31	30	-0.0080779431224798
3	32	31	0.039917540091555
3	33	32	-0.041964944326319
3	34	33	0.0033249011100267
3	35	34	-0.0033419915032571
3	36	35	0.087372072297148
3	37	36	-0.06221150600817
3	38	37	-0.0067259281361469
3	39	38	-0.046676952033305
3	40	39	0.087066445206293
3	41	40	0.01726152296178
4	14	13	3.9690439751639
4	15	14	5.1525451826332
4	16	15	5.6681747221567
4	17	16	7.0205531004176
4	18	17	8.8264873591226
4	19	18	3.0258948320115
4	20	19	2.0253358469362
4	21	20	2.1542456158491
4	22	21	1.9770075572772
4	23	22	1.8561220989852
4	24	23	2.2588287676374
4	25	24	1.8989113375424
4	26	25	1.9074552757627
4	27	26	2.2877697939054
4	28	27	1.7317416298588
4	29	28	2.1147345483581
4	30	29	2.0225089623993
4	31	30	1.9913422674825
4	32	31	2.1553542900562
4	33	32	1.8784781080697
4	34	33	2.0293880631205
4	35	34	2.0068830141152
4	36	35	2.3191642468708
4	37	36	1.8133304385842
4	38	37	1.9974656803225
4	39	38	1.8602797740296
4	40	39	2.3146439182134
4	41	40	2.0834036170323
5	22	21	31.121986136246
5	23	22	31.121986136246
5	24	23	34.165044860993
5	25	24	39.070358364564
5	26	25	45.807030966039
5	27	26	54.463107604758
5	28	27	65.112533637882
5	29	28	77.560285725307
5	30	29	91.309383788574
5	31	30	105.10807863877
5	32	31	118.91747915249
5	33	32	132.71291481812
5	34	33	146.50560969572
5	35	34	160.29691648108
5	36	35	174.06817366515
5	37	36	187.87223438064
5	38	37	201.63940560609
5	39	38	215.42210037517
5	40	39	229.21633090406
5	41	40	243.00425230023
6	22	21	26.65
6	23	22	26.65
6	24	23	26.65
6	25	24	26.65
6	26	25	26.65
6	27	26	26.65
6	28	27	26.65
6	29	28	26.65
6	30	29	26.65
6	31	30	26.65
6	32	31	26.65
6	33	32	26.65
6	34	33	26.65
6	35	34	26.65
6	36	35	26.65
6	37	36	26.65
6	38	37	26.65
6	39	38	26.65
6	40	39	26.65
6	41	40	26.65
7	23	22	3.8877043787725
7	24	23	5.8184305689447
7	25	24	7.5650523118824
7	26	25	9.5971994988071
7	27	26	11.453562992898
7	28	27	13.324686807705
7	29	28	13.852561169502
7	30	29	13.848270358313
7	31	30	13.828997607683
7	32	31	13.885681089771
7	33	32	13.792500097796
7	34	33	13.812434796335
7	35	34	13.764616330459
7	36	35	13.882665616502
7	37	36	13.811084142076
7	38	37	13.847791213559
7	39	38	13.860172562227
7	40	39	13.865760431581
7	41	40	13.868555346713
8	24	23	1.9307261901721
8	25	24	1.7466217429377
8	26	25	2.0321471869247
8	27	26	1.8563634940912
8	28	27	1.8711238148063
8	29	28	0.52787436179723
8	30	29	-0.0042908111889854
8	31	30	-0.019272750630044
8	32	31	0.056683482087683
8	33	32	-0.093180991974659
8	34	33	0.019934698538854
8	35	34	-0.04781846587546
8	36	35	0.1180492860428
8	37	36	-0.071581474426202
8	38	37	0.036707071482668
8	39	38	0.012381348668132
8	40	39	0.0055878693540592
8	41	40	0.0027949151326894
9	24	23	4.1162225959102
9	25	24	4.6993350310999
9	26	25	6.3548325113947
9	27	26	6.9254577619638
9	28	27	7.9799747778005
9	29	28	3.786101810878
9	30	29	2.0090551442483
9	31	30	1.9571908433288
9	32	31	2.2168621964678
9	33	32	1.7080000179558
9	34	33	2.0861056369133
9	35	34	1.8562938645012
9	36	35	2.4218273844692
9	37	36	1.7813536330078
9	38	37	2.1458300199737
9	39	38	2.0659401600923
9	40	39	2.0438225876679
9	41	40	2.034775175299

